test/results/nordic_fault_multiterminal/multiterminal4/res_branch_2.csv
branch,from_bus,to_bus,X,B,G,Bfr,Bto,p_from,p_to,q_from,q_to,p_loss,q_loss,s_from,s_to,rate_a,ang_deg,angmin,angmax
2,24021,24042,0.1,-9.900990099009901,0.99009900990099,1.5004299999999997,1.5004299999999997,7.919150682832026,-7.363596202285582,0.30795462779171756,1.6495109245269868,0.5555544805464434,1.9574655523187043,7.925136187484558,7.546087418023232,14.0,40.000000554485986,-40.0,40.0
3,24042,24043,0.015,-65.50218340611355,8.733624454148472,0.248815,0.248815,7.363596202285582,-7.269229011355024,-1.6495109245269868,1.7605985080533146,0.09436719093055856,0.11108758352632786,7.546087418023232,7.479398206145003,14.0,5.415798331222819,-40.0,40.0
1,24011,24021,0.06,-16.501650165016503,1.6501650165016504,0.899745,0.899745,13.301677392972884,-12.367399393523288,2.299244635361346,4.866152422898059,0.9342779994495967,7.165397058259405,13.498931341404912,13.29029748206551,14.0,40.0000003901373,-40.0,40.0
